<?xml version="1.0" encoding="UTF-8"?>

<!-- generated on 2025-07-03 09:51:52 by Eclipse SUMO netedit Version 1.23.1
<neteditConfiguration xmlns:xsi="http://www.w3.org/2001/XMLSchema-instance" xsi:noNamespaceSchemaLocation="http://sumo.dlr.de/xsd/neteditConfiguration.xsd">

    <input>
        <sumocfg-file value="C:\Users\Morgana\Documents\SIAGeTrans\sumo_simulation\sumo_elements\test.sumocfg"/>
        <additional-files value="C:\Users\Morgana\Documents\SIAGeTrans\sumo_simulation\sumo_elements\test.add.xml"/>
        <route-files value="C:\Users\Morgana\Documents\SIAGeTrans\sumo_simulation\sumo_elements\test.rou.xml"/>
        <sumo-net-file value="C:\Users\Morgana\Documents\SIAGeTrans\sumo_simulation\sumo_elements\test.net.xml"/>
    </input>

    <output>
        <output-file value="C:\Users\Morgana\Documents\SIAGeTrans\sumo_simulation\sumo_elements\test.net.xml"/>
    </output>

    <processing>
        <geometry.min-radius.fix.railways value="false"/>
        <geometry.avoid-overlap value="false"/>
        <geometry.max-grade.fix value="false"/>
        <offset.disable-normalization value="true"/>
        <lefthand value="0"/>
    </processing>

    <junctions>
        <no-internal-links value="false"/>
        <no-turnarounds value="true"/>
        <junctions.corner-detail value="5"/>
        <junctions.limit-turn-speed value="5.50"/>
        <rectangular-lane-cut value="0"/>
    </junctions>

    <pedestrian>
        <walkingareas value="0"/>
    </pedestrian>

</neteditConfiguration>
-->

<net version="1.20" junctionCornerDetail="5" limitTurnSpeed="5.50" avoidOverlap="0" xmlns:xsi="http://www.w3.org/2001/XMLSchema-instance" xsi:noNamespaceSchemaLocation="http://sumo.dlr.de/xsd/net_file.xsd">

    <location netOffset="0.00,0.00" convBoundary="-100.00,-100.00,100.00,100.00" origBoundary="-10000000000.00,-10000000000.00,10000000000.00,10000000000.00" projParameter="!"/>

    <edge id=":J3_w0" function="walkingarea">
        <lane id=":J3_w0_0" index="0" allow="pedestrian" speed="2.78" length="14.80" width="2.00" shape="100.00,6.40 100.00,8.40 100.00,-8.40 100.00,-6.40"/>
    </edge>
    <edge id=":J4_0" function="internal">
        <lane id=":J4_0_0" index="0" disallow="pedestrian" speed="6.51" length="4.75" shape="-4.80,10.40 -5.15,7.95 -6.20,6.20 -6.40,6.08"/>
        <lane id=":J4_0_1" index="1" disallow="pedestrian" speed="8.00" length="10.13" shape="-1.60,10.40 -2.15,6.55 -3.80,3.80 -6.40,2.24"/>
    </edge>
    <edge id=":J4_2" function="internal">
        <lane id=":J4_2_0" index="0" disallow="pedestrian" speed="13.89" length="20.80" shape="-1.60,10.40 -1.60,-10.40"/>
    </edge>
    <edge id=":J4_12" function="internal">
        <lane id=":J4_12_0" index="0" disallow="pedestrian" speed="6.51" length="4.28" shape="-6.40,6.08 -7.95,5.15 -10.40,4.80"/>
        <lane id=":J4_12_1" index="0" disallow="pedestrian" speed="8.00" length="4.06" shape="-6.40,2.24 -6.55,2.15 -10.40,1.60"/>
    </edge>
    <edge id=":J4_3" function="internal">
        <lane id=":J4_3_0" index="0" disallow="pedestrian" speed="6.51" length="4.75" shape="10.40,4.80 7.95,5.15 6.20,6.20 6.08,6.40"/>
        <lane id=":J4_3_1" index="1" disallow="pedestrian" speed="8.00" length="10.13" shape="10.40,1.60 6.55,2.15 3.80,3.80 2.24,6.40"/>
    </edge>
    <edge id=":J4_5" function="internal">
        <lane id=":J4_5_0" index="0" disallow="pedestrian" speed="13.89" length="20.80" shape="10.40,1.60 -10.40,1.60"/>
    </edge>
    <edge id=":J4_13" function="internal">
        <lane id=":J4_13_0" index="0" disallow="pedestrian" speed="6.51" length="4.28" shape="6.08,6.40 5.15,7.95 4.80,10.40"/>
        <lane id=":J4_13_1" index="0" disallow="pedestrian" speed="8.00" length="4.06" shape="2.24,6.40 2.15,6.55 1.60,10.40"/>
    </edge>
    <edge id=":J4_6" function="internal">
        <lane id=":J4_6_0" index="0" disallow="pedestrian" speed="6.51" length="4.75" shape="4.80,-10.40 5.15,-7.95 6.20,-6.20 6.40,-6.08"/>
        <lane id=":J4_6_1" index="1" disallow="pedestrian" speed="8.00" length="10.13" shape="1.60,-10.40 2.15,-6.55 3.80,-3.80 6.40,-2.24"/>
    </edge>
    <edge id=":J4_8" function="internal">
        <lane id=":J4_8_0" index="0" disallow="pedestrian" speed="13.89" length="20.80" shape="1.60,-10.40 1.60,10.40"/>
    </edge>
    <edge id=":J4_14" function="internal">
        <lane id=":J4_14_0" index="0" disallow="pedestrian" speed="6.51" length="4.28" shape="6.40,-6.08 7.95,-5.15 10.40,-4.80"/>
        <lane id=":J4_14_1" index="0" disallow="pedestrian" speed="8.00" length="4.06" shape="6.40,-2.24 6.55,-2.15 10.40,-1.60"/>
    </edge>
    <edge id=":J4_9" function="internal">
        <lane id=":J4_9_0" index="0" disallow="pedestrian" speed="6.51" length="4.75" shape="-10.40,-4.80 -7.95,-5.15 -6.20,-6.20 -6.08,-6.40"/>
        <lane id=":J4_9_1" index="1" disallow="pedestrian" speed="8.00" length="10.13" shape="-10.40,-1.60 -6.55,-2.15 -3.80,-3.80 -2.24,-6.40"/>
    </edge>
    <edge id=":J4_11" function="internal">
        <lane id=":J4_11_0" index="0" disallow="pedestrian" speed="13.89" length="20.80" shape="-10.40,-1.60 10.40,-1.60"/>
    </edge>
    <edge id=":J4_15" function="internal">
        <lane id=":J4_15_0" index="0" disallow="pedestrian" speed="6.51" length="4.28" shape="-6.08,-6.40 -5.15,-7.95 -4.80,-10.40"/>
        <lane id=":J4_15_1" index="0" disallow="pedestrian" speed="8.00" length="4.06" shape="-2.24,-6.40 -2.15,-6.55 -1.60,-10.40"/>
    </edge>
    <edge id=":J4_c0" function="crossing" crossingEdges="-E2 E2">
        <lane id=":J4_c0_0" index="0" allow="pedestrian" speed="2.78" length="12.80" width="4.00" shape="6.40,8.40 -6.40,8.40" outlineShape="6.50,10.40 -6.50,10.40 -10.40,6.40 -10.40,8.40 -8.40,10.40 -6.40,10.40 -10.40,6.40 10.40,6.40 9.18,6.51 8.18,6.84 7.40,7.40 6.84,8.18 6.51,9.18"/>
    </edge>
    <edge id=":J4_c1" function="crossing" crossingEdges="-E1 E1">
        <lane id=":J4_c1_0" index="0" allow="pedestrian" speed="2.78" length="12.80" width="4.00" shape="8.40,-6.40 8.40,6.40" outlineShape="10.40,-6.50 10.40,6.50 6.40,10.40 8.40,10.40 10.40,8.40 10.40,6.40 6.40,10.40 6.40,-10.40 6.51,-9.18 6.84,-8.18 7.40,-7.40 8.18,-6.84 9.18,-6.51"/>
    </edge>
    <edge id=":J4_c2" function="crossing" crossingEdges="-E4 E4">
        <lane id=":J4_c2_0" index="0" allow="pedestrian" speed="2.78" length="12.80" width="4.00" shape="-6.40,-8.40 6.40,-8.40" outlineShape="-6.50,-10.40 6.50,-10.40 10.40,-6.40 10.40,-8.40 8.40,-10.40 6.40,-10.40 10.40,-6.40 -10.40,-6.40 -9.18,-6.51 -8.18,-6.84 -7.40,-7.40 -6.84,-8.18 -6.51,-9.18"/>
    </edge>
    <edge id=":J4_c3" function="crossing" crossingEdges="-E3 E3">
        <lane id=":J4_c3_0" index="0" allow="pedestrian" speed="2.78" length="12.80" width="4.00" shape="-8.40,6.40 -8.40,-6.40" outlineShape="-10.40,6.50 -10.40,-6.50 -6.40,-10.40 -8.40,-10.40 -10.40,-8.40 -10.40,-6.40 -6.40,-10.40 -6.40,10.40 -6.51,9.18 -6.84,8.18 -7.40,7.40 -8.18,6.84 -9.18,6.51"/>
    </edge>
    <edge id=":J4_w0" function="walkingarea">
        <lane id=":J4_w0_0" index="0" allow="pedestrian" speed="2.78" length="3.30" width="4.00" shape="-10.40,6.40 -10.40,8.40 -8.40,10.40 -6.40,10.40 -6.51,9.18 -6.84,8.18 -7.40,7.40 -8.18,6.84 -9.18,6.51"/>
    </edge>
    <edge id=":J4_w1" function="walkingarea">
        <lane id=":J4_w1_0" index="0" allow="pedestrian" speed="2.78" length="3.30" width="4.00" shape="6.40,10.40 8.40,10.40 10.40,8.40 10.40,6.40 9.18,6.51 8.18,6.84 7.40,7.40 6.84,8.18 6.51,9.18"/>
    </edge>
    <edge id=":J4_w2" function="walkingarea">
        <lane id=":J4_w2_0" index="0" allow="pedestrian" speed="2.78" length="3.30" width="4.00" shape="10.40,-6.40 10.40,-8.40 8.40,-10.40 6.40,-10.40 6.51,-9.18 6.84,-8.18 7.40,-7.40 8.18,-6.84 9.18,-6.51"/>
    </edge>
    <edge id=":J4_w3" function="walkingarea">
        <lane id=":J4_w3_0" index="0" allow="pedestrian" speed="2.78" length="3.30" width="4.00" shape="-6.40,-10.40 -8.40,-10.40 -10.40,-8.40 -10.40,-6.40 -9.18,-6.51 -8.18,-6.84 -7.40,-7.40 -6.84,-8.18 -6.51,-9.18"/>
    </edge>
    <edge id=":J5_w0" function="walkingarea">
        <lane id=":J5_w0_0" index="0" allow="pedestrian" speed="2.78" length="14.80" width="2.00" shape="-100.00,-6.40 -100.00,-8.40 -100.00,8.40 -100.00,6.40"/>
    </edge>
    <edge id=":J6_w0" function="walkingarea">
        <lane id=":J6_w0_0" index="0" allow="pedestrian" speed="2.78" length="14.80" width="2.00" shape="-6.40,100.00 -8.40,100.00 8.40,100.00 6.40,100.00"/>
    </edge>
    <edge id=":J7_w0" function="walkingarea">
        <lane id=":J7_w0_0" index="0" allow="pedestrian" speed="2.78" length="14.80" width="2.00" shape="6.40,-100.00 8.40,-100.00 -8.40,-100.00 -6.40,-100.00"/>
    </edge>

    <edge id="-E1" from="J4" to="J3" priority="-1">
        <lane id="-E1_0" index="0" allow="pedestrian" speed="13.89" length="89.60" width="2.00" shape="10.40,-7.40 100.00,-7.40"/>
        <lane id="-E1_1" index="1" disallow="pedestrian" speed="13.89" length="89.60" shape="10.40,-4.80 100.00,-4.80"/>
        <lane id="-E1_2" index="2" disallow="pedestrian" speed="13.89" length="89.60" shape="10.40,-1.60 100.00,-1.60"/>
    </edge>
    <edge id="-E2" from="J4" to="J6" priority="-1">
        <lane id="-E2_0" index="0" allow="pedestrian" speed="13.89" length="89.60" width="2.00" shape="7.40,10.40 7.40,100.00"/>
        <lane id="-E2_1" index="1" disallow="pedestrian" speed="13.89" length="89.60" shape="4.80,10.40 4.80,100.00"/>
        <lane id="-E2_2" index="2" disallow="pedestrian" speed="13.89" length="89.60" shape="1.60,10.40 1.60,100.00"/>
    </edge>
    <edge id="-E3" from="J4" to="J5" priority="-1">
        <lane id="-E3_0" index="0" allow="pedestrian" speed="13.89" length="89.60" width="2.00" shape="-10.40,7.40 -100.00,7.40"/>
        <lane id="-E3_1" index="1" disallow="pedestrian" speed="13.89" length="89.60" shape="-10.40,4.80 -100.00,4.80"/>
        <lane id="-E3_2" index="2" disallow="pedestrian" speed="13.89" length="89.60" shape="-10.40,1.60 -100.00,1.60"/>
    </edge>
    <edge id="-E4" from="J4" to="J7" priority="-1">
        <lane id="-E4_0" index="0" allow="pedestrian" speed="13.89" length="89.60" width="2.00" shape="-7.40,-10.40 -7.40,-100.00"/>
        <lane id="-E4_1" index="1" disallow="pedestrian" speed="13.89" length="89.60" shape="-4.80,-10.40 -4.80,-100.00"/>
        <lane id="-E4_2" index="2" disallow="pedestrian" speed="13.89" length="89.60" shape="-1.60,-10.40 -1.60,-100.00"/>
    </edge>
    <edge id="E1" from="J3" to="J4" priority="-1">
        <lane id="E1_0" index="0" allow="pedestrian" speed="13.89" length="89.60" width="2.00" shape="100.00,7.40 10.40,7.40"/>
        <lane id="E1_1" index="1" disallow="pedestrian" speed="13.89" length="89.60" shape="100.00,4.80 10.40,4.80"/>
        <lane id="E1_2" index="2" disallow="pedestrian" speed="13.89" length="89.60" shape="100.00,1.60 10.40,1.60"/>
    </edge>
    <edge id="E2" from="J6" to="J4" priority="-1">
        <lane id="E2_0" index="0" allow="pedestrian" speed="13.89" length="89.60" width="2.00" shape="-7.40,100.00 -7.40,10.40"/>
        <lane id="E2_1" index="1" disallow="pedestrian" speed="13.89" length="89.60" shape="-4.80,100.00 -4.80,10.40"/>
        <lane id="E2_2" index="2" disallow="pedestrian" speed="13.89" length="89.60" shape="-1.60,100.00 -1.60,10.40"/>
    </edge>
    <edge id="E3" from="J5" to="J4" priority="-1">
        <lane id="E3_0" index="0" allow="pedestrian" speed="13.89" length="89.60" width="2.00" shape="-100.00,-7.40 -10.40,-7.40"/>
        <lane id="E3_1" index="1" disallow="pedestrian" speed="13.89" length="89.60" shape="-100.00,-4.80 -10.40,-4.80"/>
        <lane id="E3_2" index="2" disallow="pedestrian" speed="13.89" length="89.60" shape="-100.00,-1.60 -10.40,-1.60"/>
    </edge>
    <edge id="E4" from="J7" to="J4" priority="-1">
        <lane id="E4_0" index="0" allow="pedestrian" speed="13.89" length="89.60" width="2.00" shape="7.40,-100.00 7.40,-10.40"/>
        <lane id="E4_1" index="1" disallow="pedestrian" speed="13.89" length="89.60" shape="4.80,-100.00 4.80,-10.40"/>
        <lane id="E4_2" index="2" disallow="pedestrian" speed="13.89" length="89.60" shape="1.60,-100.00 1.60,-10.40"/>
    </edge>

    <tlLogic id="J4" type="static" programID="0" offset="0">
        <phase duration="30" state="rgGrrrrgGrrrrGrGrrrr"/>
        <phase duration="3"  state="rryrrrrryrrrryryrrrr"/>
        <phase duration="2"  state="rrrrrrrrrrrrrrrrrrrr"/>
        <phase duration="30" state="rrrrgGrrrrgGGrGrrrrr"/>
        <phase duration="3"  state="rrrrryrrrrryyryrrrrr"/>
        <phase duration="2"  state="rrrrrrrrrrrrrrrrrrrr"/>
        <phase duration="30" state="GGrGGrGGrGGrrrrrrrrr"/>
        <phase duration="3"  state="yyryyryyryyrrrrrrrrr"/>
        <phase duration="2"  state="rrrrrrrrrrrrrrrrrrrr"/>
    </tlLogic>

    <junction id="J3" type="dead_end" x="100.00" y="0.00" incLanes="-E1_0 -E1_1 -E1_2" intLanes="" shape="100.00,0.00 100.00,-8.40 100.00,0.00"/>
    <junction id="J4" type="traffic_light" x="0.00" y="0.00" incLanes="E2_0 E2_1 E2_2 E1_0 E1_1 E1_2 E4_0 E4_1 E4_2 E3_0 E3_1 E3_2 :J4_w1_0 :J4_w2_0 :J4_w3_0 :J4_w0_0" intLanes=":J4_12_0 :J4_12_1 :J4_2_0 :J4_13_0 :J4_13_1 :J4_5_0 :J4_14_0 :J4_14_1 :J4_8_0 :J4_15_0 :J4_15_1 :J4_11_0 :J4_c0_0 :J4_c1_0 :J4_c2_0 :J4_c3_0" shape="-8.40,10.40 8.40,10.40 8.62,9.29 8.90,8.90 9.29,8.62 9.79,8.46 10.40,8.40 10.40,-8.40 9.29,-8.62 8.90,-8.90 8.62,-9.29 8.46,-9.79 8.40,-10.40 -8.40,-10.40 -8.62,-9.29 -8.90,-8.90 -9.29,-8.62 -9.79,-8.46 -10.40,-8.40 -10.40,8.40 -9.29,8.62 -8.90,8.90 -8.62,9.29 -8.46,9.79">
        <request index="0"  response="1001000000000000" foes="1001000000100000" cont="1"/>
        <request index="1"  response="1001000000000000" foes="1001000000100000" cont="1"/>
        <request index="2"  response="0101011000000000" foes="0101111000100000" cont="0"/>
        <request index="3"  response="0011000100000000" foes="0011000100000000" cont="1"/>
        <request index="4"  response="0011000100000000" foes="0011000100000000" cont="1"/>
        <request index="5"  response="1010000100000111" foes="1010000100000111" cont="0"/>
        <request index="6"  response="0110000000000000" foes="0110100000000000" cont="1"/>
        <request index="7"  response="0110000000000000" foes="0110100000000000" cont="1"/>
        <request index="8"  response="0101000000011000" foes="0101100000111000" cont="0"/>
        <request index="9"  response="1100000000000100" foes="1100000000000100" cont="1"/>
        <request index="10" response="1100000000000100" foes="1100000000000100" cont="1"/>
        <request index="11" response="1010000111000100" foes="1010000111000100" cont="0"/>
        <request index="12" response="0000000000000000" foes="0000000100011111" cont="0"/>
        <request index="13" response="0000000000000000" foes="0000100011111000" cont="0"/>
        <request index="14" response="0000000000000000" foes="0000011111000100" cont="0"/>
        <request index="15" response="0000000000000000" foes="0000111000100011" cont="0"/>
    </junction>
    <junction id="J5" type="dead_end" x="-100.00" y="0.00" incLanes="-E3_0 -E3_1 -E3_2" intLanes="" shape="-100.00,0.00 -100.00,8.40 -100.00,0.00"/>
    <junction id="J6" type="dead_end" x="0.00" y="100.00" incLanes="-E2_0 -E2_1 -E2_2" intLanes="" shape="0.00,100.00 8.40,100.00 0.00,100.00"/>
    <junction id="J7" type="dead_end" x="0.00" y="-100.00" incLanes="-E4_0 -E4_1 -E4_2" intLanes="" shape="0.00,-100.00 -8.40,-100.00 0.00,-100.00"/>

    <junction id=":J4_12_0" type="internal" x="-6.40" y="6.08" incLanes=":J4_0_0" intLanes=":J4_5_0 :J4_c0_0 :J4_c3_0"/>
    <junction id=":J4_12_1" type="internal" x="-6.40" y="2.24" incLanes=":J4_0_1" intLanes=":J4_5_0 :J4_c0_0 :J4_c3_0"/>
    <junction id=":J4_13_0" type="internal" x="6.08" y="6.40" incLanes=":J4_3_0" intLanes=":J4_8_0 :J4_c0_0 :J4_c1_0"/>
    <junction id=":J4_13_1" type="internal" x="2.24" y="6.40" incLanes=":J4_3_1" intLanes=":J4_8_0 :J4_c0_0 :J4_c1_0"/>
    <junction id=":J4_14_0" type="internal" x="6.40" y="-6.08" incLanes=":J4_6_0" intLanes=":J4_11_0 :J4_c1_0 :J4_c2_0"/>
    <junction id=":J4_14_1" type="internal" x="6.40" y="-2.24" incLanes=":J4_6_1" intLanes=":J4_11_0 :J4_c1_0 :J4_c2_0"/>
    <junction id=":J4_15_0" type="internal" x="-6.08" y="-6.40" incLanes=":J4_9_0" intLanes=":J4_2_0 :J4_c2_0 :J4_c3_0"/>
    <junction id=":J4_15_1" type="internal" x="-2.24" y="-6.40" incLanes=":J4_9_1" intLanes=":J4_2_0 :J4_c2_0 :J4_c3_0"/>

    <connection from="E1" to="-E2" fromLane="1" toLane="1" via=":J4_3_0" tl="J4" linkIndex="3" dir="r" state="o"/>
    <connection from="E1" to="-E2" fromLane="2" toLane="2" via=":J4_3_1" tl="J4" linkIndex="4" dir="r" state="o"/>
    <connection from="E1" to="-E3" fromLane="2" toLane="2" via=":J4_5_0" tl="J4" linkIndex="5" dir="s" state="o"/>
    <connection from="E2" to="-E3" fromLane="1" toLane="1" via=":J4_0_0" tl="J4" linkIndex="0" dir="r" state="o"/>
    <connection from="E2" to="-E3" fromLane="2" toLane="2" via=":J4_0_1" tl="J4" linkIndex="1" dir="r" state="o"/>
    <connection from="E2" to="-E4" fromLane="2" toLane="2" via=":J4_2_0" tl="J4" linkIndex="2" dir="s" state="o"/>
    <connection from="E3" to="-E4" fromLane="1" toLane="1" via=":J4_9_0" tl="J4" linkIndex="9" dir="r" state="o"/>
    <connection from="E3" to="-E4" fromLane="2" toLane="2" via=":J4_9_1" tl="J4" linkIndex="10" dir="r" state="o"/>
    <connection from="E3" to="-E1" fromLane="2" toLane="2" via=":J4_11_0" tl="J4" linkIndex="11" dir="s" state="o"/>
    <connection from="E4" to="-E1" fromLane="1" toLane="1" via=":J4_6_0" tl="J4" linkIndex="6" dir="r" state="o"/>
    <connection from="E4" to="-E1" fromLane="2" toLane="2" via=":J4_6_1" tl="J4" linkIndex="7" dir="r" state="o"/>
    <connection from="E4" to="-E2" fromLane="2" toLane="2" via=":J4_8_0" tl="J4" linkIndex="8" dir="s" state="o"/>

    <connection from=":J4_0" to="-E3" fromLane="0" toLane="1" via=":J4_12_0" dir="r" state="m"/>
    <connection from=":J4_12" to="-E3" fromLane="0" toLane="1" dir="r" state="m"/>
    <connection from=":J4_0" to="-E3" fromLane="1" toLane="2" via=":J4_12_1" dir="r" state="m"/>
    <connection from=":J4_12" to="-E3" fromLane="1" toLane="2" dir="r" state="m"/>
    <connection from=":J4_2" to="-E4" fromLane="0" toLane="2" dir="s" state="M"/>
    <connection from=":J4_3" to="-E2" fromLane="0" toLane="1" via=":J4_13_0" dir="r" state="m"/>
    <connection from=":J4_13" to="-E2" fromLane="0" toLane="1" dir="r" state="m"/>
    <connection from=":J4_3" to="-E2" fromLane="1" toLane="2" via=":J4_13_1" dir="r" state="m"/>
    <connection from=":J4_13" to="-E2" fromLane="1" toLane="2" dir="r" state="m"/>
    <connection from=":J4_5" to="-E3" fromLane="0" toLane="2" dir="s" state="M"/>
    <connection from=":J4_6" to="-E1" fromLane="0" toLane="1" via=":J4_14_0" dir="r" state="m"/>
    <connection from=":J4_14" to="-E1" fromLane="0" toLane="1" dir="r" state="m"/>
    <connection from=":J4_6" to="-E1" fromLane="1" toLane="2" via=":J4_14_1" dir="r" state="m"/>
    <connection from=":J4_14" to="-E1" fromLane="1" toLane="2" dir="r" state="m"/>
    <connection from=":J4_8" to="-E2" fromLane="0" toLane="2" dir="s" state="M"/>
    <connection from=":J4_9" to="-E4" fromLane="0" toLane="1" via=":J4_15_0" dir="r" state="m"/>
    <connection from=":J4_15" to="-E4" fromLane="0" toLane="1" dir="r" state="m"/>
    <connection from=":J4_9" to="-E4" fromLane="1" toLane="2" via=":J4_15_1" dir="r" state="m"/>
    <connection from=":J4_15" to="-E4" fromLane="1" toLane="2" dir="r" state="m"/>
    <connection from=":J4_11" to="-E1" fromLane="0" toLane="2" dir="s" state="M"/>

    <connection from=":J3_w0" to="E1" fromLane="0" toLane="0" dir="s" state="M"/>
    <connection from="-E1" to=":J3_w0" fromLane="0" toLane="0" dir="s" state="M"/>
    <connection from=":J4_c0" to=":J4_w0" fromLane="0" toLane="0" dir="s" state="M"/>
    <connection from=":J4_c1" to=":J4_w1" fromLane="0" toLane="0" dir="s" state="M"/>
    <connection from=":J4_c2" to=":J4_w2" fromLane="0" toLane="0" dir="s" state="M"/>
    <connection from=":J4_c3" to=":J4_w3" fromLane="0" toLane="0" dir="s" state="M"/>
    <connection from=":J4_w0" to=":J4_c3" fromLane="0" toLane="0" tl="J4" linkIndex="15" dir="s" state="M"/>
    <connection from=":J4_w0" to="-E3" fromLane="0" toLane="0" dir="s" state="M"/>
    <connection from="E2" to=":J4_w0" fromLane="0" toLane="0" dir="s" state="M"/>
    <connection from=":J4_w1" to=":J4_c0" fromLane="0" toLane="0" tl="J4" linkIndex="12" dir="s" state="M"/>
    <connection from=":J4_w1" to="-E2" fromLane="0" toLane="0" dir="s" state="M"/>
    <connection from="E1" to=":J4_w1" fromLane="0" toLane="0" dir="s" state="M"/>
    <connection from=":J4_w2" to=":J4_c1" fromLane="0" toLane="0" tl="J4" linkIndex="13" dir="s" state="M"/>
    <connection from=":J4_w2" to="-E1" fromLane="0" toLane="0" dir="s" state="M"/>
    <connection from="E4" to=":J4_w2" fromLane="0" toLane="0" dir="s" state="M"/>
    <connection from=":J4_w3" to=":J4_c2" fromLane="0" toLane="0" tl="J4" linkIndex="14" dir="s" state="M"/>
    <connection from=":J4_w3" to="-E4" fromLane="0" toLane="0" dir="s" state="M"/>
    <connection from="E3" to=":J4_w3" fromLane="0" toLane="0" dir="s" state="M"/>
    <connection from=":J5_w0" to="E3" fromLane="0" toLane="0" dir="s" state="M"/>
    <connection from="-E3" to=":J5_w0" fromLane="0" toLane="0" dir="s" state="M"/>
    <connection from=":J6_w0" to="E2" fromLane="0" toLane="0" dir="s" state="M"/>
    <connection from="-E2" to=":J6_w0" fromLane="0" toLane="0" dir="s" state="M"/>
    <connection from=":J7_w0" to="E4" fromLane="0" toLane="0" dir="s" state="M"/>
    <connection from="-E4" to=":J7_w0" fromLane="0" toLane="0" dir="s" state="M"/>
</net>
