<?xml version="1.0" encoding="UTF-8"?>

<!-- generated on 2025-07-21 02:38:43 by Eclipse SUMO netedit Version 1.23.1
-->

<additional xmlns:xsi="http://www.w3.org/2001/XMLSchema-instance" xsi:noNamespaceSchemaLocation="http://sumo.dlr.de/xsd/additional_file.xsd">
    <!-- MeanDataLanes -->
    <laneData id="01" file="metrics\lanedata.xml"/>
</additional>
