<?xml version="1.0" encoding="UTF-8"?>

<!-- generated on 2025-06-18 00:54:19 by Eclipse SUMO sumo Version 1.23.1
-->

<sumoConfiguration xmlns:xsi="http://www.w3.org/2001/XMLSchema-instance" xsi:noNamespaceSchemaLocation="http://sumo.dlr.de/xsd/sumoConfiguration.xsd">

    <input>
        <net-file value="teste.net.xml"/>
        <route-files value="teste.rou.xml"/>
        <additional-files value="teste.add.xml"/>
    </input>

</sumoConfiguration>
